/*--------------------------------*- C++ -*----------------------------------*\
| =========                 |                                                 |
| \\      /  F ield         | OpenFOAM: The Open Source CFD Toolbox           |
|  \\    /   O peration     | Version:  v1812                                 |
|   \\  /    A nd           | Web:      www.OpenFOAM.com                      |
|    \\/     M anipulation  |                                                 |
\*---------------------------------------------------------------------------*/
FoamFile
{
    version     2.0;
    format      ascii;
    class       dictionary;
    object      blockMeshDict;
}
// * * * * * * * * * * * * * * * * * * * * * * * * * * * * * * * * * * * * * //

scale   1e-6;

vertices
(
	(-1300 -1200 -30) // 0
	(1300 -1200 -30) // 1
	(1300 1200 -30)  // 2
	(-1300 1200 -30)  // 3
	(-1300 -1200 30)  // 4
	(1300 -1200 30)  // 5
	(1300 1200 30)   // 6
	(-1300 1200 30)   // 7


);

blocks
(
    hex (0 1 2 3 4 5 6 7) (40 40 4) simpleGrading (1 1 1)
);

edges
(
);

boundary
(
    
);

mergePatchPairs
(
);

// ************************************************************************* //
